LAMMPS (23 Jun 2022)
# Define variables
# Starting temperature:
variable T equal 1
# Number of molecules:
variable N equal 500
# Density:
variable rho equal 0.001
# Length of sides of cubic box
variable L equal (500/0.001)^(1/3)
# How much heat to add per timestep
variable eFlux equal 1
# Spring bond (0) or rigid bond (1)
variable rigidbond equal 0

# Use Lennard-Jones units, periodic boundaries and atomic model
units lj
boundary p p p
atom_style full

# Define the space and put atoms in
dimension 3
region simbox block 0 $L 0 $L 0 $L
region simbox block 0 79.37005259841 0 $L 0 $L
region simbox block 0 79.37005259841 0 79.37005259841 0 $L
region simbox block 0 79.37005259841 0 79.37005259841 0 79.37005259841
create_box 1 simbox bond/types 1 extra/bond/per/atom 1
Created orthogonal box = (0 0 0) to (79.370053 79.370053 79.370053)

# Define properties of the molecules
bond_style class2
bond_coeff 1 0.7 35.0 -40.0 59.0
molecule LJdiat diat.molecule
Read molecule template LJdiat:
  1 molecules
  0 fragments
  2 atoms with max type 1
  1 bonds with max type 1
  0 angles with max type 0
  0 dihedrals with max type 0
  0 impropers with max type 0
create_atoms 0 random $N 12345 simbox mol LJdiat 1234
create_atoms 0 random 500 12345 simbox mol LJdiat 1234
Created 1000 atoms
mass 1 1.0
velocity all create $T 87287
velocity all create 1 87287
pair_style lj/class2 2.5
pair_coeff 1 1 1.0 1.0 2.5

#make sure no explosion happens
minimize 1e-4 1e-4 100 100
Generated 0 of 0 mixed pair_coeff terms from geometric mixing rule
  update every 1 steps, delay 0 steps, check yes
Step          Temp          E_pair         E_mol          TotEng         Press
0   1              0.038707619    3.9759452e-28  1.5372076      0.0023963049
Loop time of 0.00753341 on 1 procs for 43 steps with 1000 atoms

Minimization stats:
  Stopping criterion = max force evaluations
  Energy initial, next-to-last, final =
  Force two-norm initial, final = 767.6978 5.4870766
  Force max component initial, final = 303.12718 1.4918006
  Final line search alpha, max atom move = 0.028940798 0.043173899
  Iterations, force evaluations = 43 101

#Make the N-N bond rigid if rigidbond=1
#timestep 2

# Speed up simulation with neighbour lists
neighbor 0.3 bin
neigh_modify every 1 delay 0 check yes

# Define thermodynamic ensemble for thermalization
fix nvt all nvt temp $T $T 1
fix nvt all nvt temp 1 $T 1
fix nvt all nvt temp 1 1 1

#Thermalization run
run             100000
Generated 0 of 0 mixed pair_coeff terms from geometric mixing rule
Step          Temp          E_pair         E_mol          TotEng         Press
43   1             -0.033401731    3.9632414e-05  1.4651379      0.001987612
Loop time of 4.4843 on 1 procs for 100000 steps with 1000 atoms

# Define thermodynamic ensemble for long run
unfix nvt
fix nve all nve

# Start heat addition and run to stabilize
fix heat all heat 1 1 region simbox
run 1000
Generated 0 of 0 mixed pair_coeff terms from geometric mixing rule
Step          Temp          E_pair         E_mol          TotEng         Press
100043   1.0006367     -0.034721708    0.26150585     1.7262383      0.0010712126
Loop time of 0.0657676 on 1 procs for 1000 steps with 1000 atoms

#Define frequency of thermodynamic output and trajectory dump and start production run
thermo 100
dump 1 all custom 100 dump.lammpstrj id x y z vx vy vz
run 100000
Generated 0 of 0 mixed pair_coeff terms from geometric mixing rule
Step          Temp          E_pair         E_mol          TotEng         Press
101043   1.0002674     -0.025100995    0.25738456     1.7311842      0.0010640387
Averages over the last 501 of 1002 rows, steps 151100 to 201043:
Temp E_pair E_mol TotEng Press
1.20491 -0.0220743 0.323202 2.10668 0.00125656
Loop time of 8.79559 on 1 procs for 100000 steps with 1000 atoms
